18
	Energy:       2.3687704
C         -3.48107        0.59700        0.65459
C         -2.15438        0.69661       -0.10128
C         -1.41475       -0.63773       -0.21898
H         -1.51664        1.43134        0.40515
H         -2.33018        1.09018       -1.10984
C         -1.72007       -1.56083        0.95277
H         -0.33643       -0.45545       -0.28912
H         -1.70825       -1.13424       -1.15260
C         -3.21210       -1.88665        1.04806
H         -1.39362       -1.07922        1.88324
H         -1.14571       -2.49000        0.86516
C         -4.11697       -0.77840        0.50550
H         -3.46054       -2.08874        2.09707
H         -3.42566       -2.81295        0.50092
H         -5.08407       -0.80851        1.02002
H         -4.32284       -0.96514       -0.55612
H         -4.16660        1.37407        0.29802
H         -3.30815        0.79864        1.71936
