28
	Energy:      14.5800556
C         -6.61968        2.39731       -0.25679
C         -5.45641        2.60761        0.73040
C         -4.59538        1.33788        0.93469
C         -5.44184        0.07097        1.12320
C         -6.54599       -0.08721        0.08667
H         -5.90481        0.10903        2.11824
H         -4.80068       -0.81843        1.11757
C         -7.43447        1.14798        0.04950
H         -6.23344        2.31945       -1.28125
H         -7.27984        3.27308       -0.23775
H         -7.15226       -0.96737        0.32934
H         -6.11018       -0.26464       -0.90349
H         -8.21161        1.01980       -0.71242
H         -7.94625        1.26739        1.01219
C         -3.56783        1.19885       -0.19508
H         -4.02680        1.45998        1.86810
C         -4.61773        3.82414        0.27824
H         -5.89959        2.84933        1.70696
C         -3.12223        3.62958        0.49327
H         -4.95451        4.71566        0.82116
H         -4.78555        4.03720       -0.78530
C         -2.60530        2.39136       -0.24002
H         -4.07951        1.11628       -1.16170
H         -2.98718        0.27598       -0.07770
H         -2.40205        2.64009       -1.28888
H         -1.64099        2.10344        0.19602
H         -2.91690        3.53640        1.56693
H         -2.57397        4.51438        0.15001
