24
	Energy:      10.0295386
C         -4.62315        1.15130        0.18962
C         -3.26920        1.77208       -0.14104
C         -2.14272        1.28565        0.77886
C         -2.11839       -0.24861        0.88161
C         -3.47518       -0.93752        1.10435
H         -1.39892       -0.56797        1.64562
H         -1.72137       -0.62612       -0.07164
C         -4.55474       -0.37281        0.17299
H         -5.53597       -0.78906        0.43024
H         -4.33951       -0.70090       -0.85245
H         -5.36293        1.48690       -0.54662
H         -4.97430        1.50459        1.16514
C         -3.92277       -0.92391        2.56679
H         -3.34058       -1.99681        0.84482
H         -4.77770       -1.59548        2.70472
H         -3.12063       -1.27407        3.22466
H         -4.23659        0.06475        2.90548
C         -2.18333        1.97831        2.14188
H         -1.99277        3.05107        2.02442
H         -1.41097        1.57847        2.80703
H         -3.14917        1.87911        2.63983
H         -1.19147        1.58892        0.31984
H         -3.34575        2.86528       -0.10478
H         -3.01147        1.51491       -1.17687
