28
	Energy:       6.2606122
C         -6.80122        2.46958       -0.01866
C         -5.33456        2.41281        0.42790
C         -4.64707        1.14456       -0.11644
C         -5.40689       -0.11479        0.31997
C         -6.87257       -0.05645       -0.10561
H         -5.35028       -0.22770        1.41009
H         -4.93892       -1.00492       -0.11689
C         -7.55905        1.21029        0.39678
H         -6.85692        2.58299       -1.10878
H         -7.29210        3.34734        0.41809
H         -7.40165       -0.93760        0.27454
H         -6.93522       -0.09440       -1.20018
H         -8.58332        1.25244        0.00955
H         -7.63286        1.17453        1.49073
C         -3.18041        1.08779        0.33012
H         -4.66295        1.18325       -1.21537
C         -4.57473        3.67215       -0.00852
H         -5.31867        2.37412        1.52683
C         -3.10906        3.61382        0.41706
H         -5.04271        4.56229        0.42833
H         -4.63134        3.78507       -1.09864
C         -2.42257        2.34708       -0.08532
H         -2.68952        0.21002       -0.10662
H         -3.12471        0.97438        1.42024
H         -2.34876        2.38283       -1.17927
H         -1.39830        2.30493        0.30192
H         -3.04640        3.65178        1.51163
H         -2.57998        4.49497        0.03690
