18
	Energy:       2.3687703
C         -3.83132        0.35289       -1.86927
C         -2.43367        0.82400       -1.46184
C         -1.46606       -0.34094       -1.30373
H         -2.05469        1.53567       -2.20401
H         -2.49710        1.36902       -0.51145
C         -1.93249       -1.32791       -0.23148
H         -1.37510       -0.86443       -2.26393
H         -0.46458        0.02719       -1.05390
C         -3.45298       -1.38194       -0.06847
H         -1.55021       -2.32483       -0.48250
H         -1.48539       -1.06506        0.73496
C         -4.17488       -1.05130       -1.36765
H         -3.76071       -0.66669        0.70485
H         -3.74930       -2.37428        0.28983
H         -5.25900       -1.13885       -1.23373
H         -3.89467       -1.78808       -2.13115
H         -3.92425        0.36731       -2.96204
H         -4.56782        1.07266       -1.49177
