71
	Energy:     436.6842522
Ni         1.64289       -1.24130       -0.75099
Cl         0.71619       -0.65403       -0.65766
Cl         2.14302       -0.58812        0.04116
P          2.20961       -0.93555       -1.92833
P          1.38920       -2.44850       -0.20894
H         -0.67342       -6.13488        0.76925
C         -0.74794       -5.11516        0.40765
C         -1.92449       -4.40347        0.59954
H         -2.78417       -4.84631        1.09023
C         -2.01763       -3.20226       -0.08943
H         -2.97597       -2.70086       -0.16976
C         -0.89832       -2.68015       -0.74054
H         -1.15838       -1.87235       -1.40385
C          0.42456       -3.14652       -0.56138
C          0.33804       -4.52541       -0.24299
H          1.16464       -5.21761       -0.35044
H          5.38986       -3.74714        1.21177
C          4.61022       -3.82129        0.46180
C          3.48687       -2.99536        0.54503
H          3.49607       -2.28565        1.36905
C          2.39070       -3.09646       -0.33895
C          2.64347       -3.90751       -1.46301
H          1.85795       -4.13116       -2.17748
C          3.80468       -4.66514       -1.61915
H          3.91286       -5.30962       -2.48456
C          4.78761       -4.65875       -0.63469
H          5.67936       -5.26761       -0.73424
H          0.87211       -2.18607        4.95513
C          0.90242       -2.29673        3.87677
C          0.15242       -1.47431        3.04488
H         -0.51719       -0.73868        3.47675
C          0.14867       -1.69921        1.66737
H         -0.67616       -1.21796        1.15652
C          1.11702       -2.49711        1.01526
C          1.47030       -3.55199        1.89249
H          1.93419       -4.47380        1.55859
C          1.47272       -3.41580        3.28201
H          1.91267       -4.19012        3.90097
H          6.25313       -2.45428       -2.34891
C          5.56860       -1.61363       -2.36942
C          4.42784       -1.62595       -1.56428
H          4.76209       -1.48817       -0.54566
C          3.41525       -0.72326       -1.91323
C          4.02635        0.54067       -1.77687
H          3.55244        1.38742       -1.29845
C          5.30589        0.74283       -2.29949
H          5.73182        1.73939       -2.33791
C          6.03773       -0.35666       -2.74593
H          7.03140       -0.23330       -3.16234
H          3.22673       -0.23079       -4.31893
C          2.33146        0.24428       -3.93504
C          1.89389        0.06440       -2.60249
C          1.32005        1.27680       -2.15433
H          1.35304        1.60361       -1.11942
C          0.61683        2.12878       -3.00816
H          0.06073        2.96646       -2.60182
C          0.70021        1.95767       -4.38605
H          0.20127        2.63905       -5.06639
C          1.66206        1.06415       -4.84437
H          1.94921        1.06416       -5.89013
C          1.87333       -1.74816       -2.75500
C          0.52937       -1.81761       -3.17913
H         -0.14332       -0.97420       -3.05152
C          0.02263       -2.83943       -3.98325
H         -1.03829       -2.87690       -4.20425
C          0.89566       -3.68390       -4.65939
H          0.52821       -4.42632       -5.35922
C          2.25429       -3.40733       -4.55267
H          2.96272       -3.95564       -5.16398
C          2.71716       -2.45545       -3.64120
H          3.78311       -2.31579       -3.69072
