21
	Energy:       0.7906685
C         -4.78531        0.90944        0.09833
C         -3.42476        1.57772       -0.02003
H         -4.93076        0.48563        1.09698
H         -4.88959        0.10379       -0.63563
H         -5.58236        1.63738       -0.08246
C         -2.29062        0.59337        0.26706
H         -3.37262        2.41661        0.68385
H         -3.31582        1.99294       -1.02860
C         -0.92044        1.24320        0.04628
H         -2.39352       -0.28162       -0.38589
H         -2.36978        0.23693        1.30122
C          0.23411        0.32022        0.44780
H         -0.85626        2.17603        0.61959
H         -0.83023        1.50429       -1.01593
C          1.58216        0.97119        0.16833
H          1.70987        1.16084       -0.90334
H          2.39845        0.30484        0.46733
H          1.68927        1.91667        0.70833
O          0.15131       -0.89466       -0.29162
H          0.15629        0.07381        1.51288
H          0.86481       -1.47591        0.02039
